version 2
1
9
.tran 1u 550m 500m{return}.kicad adjustpaths{return}.save all{return}.probe alli
4
2
I(C1)
 
2
I(D1)
 
1
V(IN)
 
1
V(OUT)
 
