version 2
1
1
.ac dec 10 1 100k{return}{return}{return}.kicad adjustpaths{return}.save all{return}.probe alli
4
9
V(IN)
 
5
V(IN)
 
9
V(OUT)
 
5
V(OUT)
 
